          19
STEP =      208
H       1.22055264      1.26696399      7.88993886
C       0.60995980      2.33012325      8.08928947
O       0.44634426      2.75486791      9.19308296
Ni      0.31597430      0.08074755      0.19531066
Ni      0.31597430      2.56933020      0.19531066
Ni      2.47115009     -1.16354378      0.19531066
Ni      2.47115009      1.32503887      0.19531066
Ni      1.03436623      1.32503887      2.22722988
Ni      1.03436623      3.81362152      2.22722988
Ni      3.18954202      0.08074755      2.22722988
Ni      3.18954202      2.56933019      2.22722988
Ni      1.74978100      0.08765486      4.24121319
Ni      3.90593433     -1.15265324      4.24493562
Ni      1.74480294      2.57733648      4.24578757
Ni      3.89559445      1.33764149      4.26255328
Ni      2.43221958      1.33875376      6.30045680
Ni      0.27662972      2.61086614      6.33499111
Ni      0.28847357      0.08965201      6.25268207
Ni      2.45213494     -1.14274124      6.23186924
